Version 4
SHEET 1 880 680
FLAG 464 112 0
