Version 4
SHEET 1 880 680
WIRE -32 -240 -288 -240
WIRE 48 -240 -32 -240
WIRE 320 -240 48 -240
WIRE 400 -240 320 -240
WIRE 48 -192 48 -240
WIRE -32 -176 -32 -240
WIRE 320 -176 320 -240
WIRE 400 -128 400 -240
WIRE -32 -112 -144 -112
WIRE 48 -112 -32 -112
WIRE 320 -112 48 -112
WIRE 352 -112 320 -112
WIRE -144 64 -144 -48
WIRE 400 64 400 -32
WIRE -288 112 -288 -240
WIRE -288 240 -288 192
WIRE -144 240 -144 144
WIRE -144 240 -288 240
WIRE 400 240 400 144
WIRE 400 240 -144 240
WIRE 400 272 400 240
FLAG 400 272 0
SYMBOL voltage -288 96 R0
WINDOW 123 0 0 Left 0
WINDOW 39 0 0 Left 0
SYMATTR InstName V1
SYMATTR Value 12
SYMBOL pmos 352 -32 M180
WINDOW 0 48 32 Left 2
SYMATTR InstName M1
SYMATTR Value IRF7207
SYMBOL diode -16 -112 R180
WINDOW 0 24 64 Left 2
WINDOW 3 24 0 Left 2
SYMATTR InstName D1
SYMBOL res 32 -208 R0
SYMATTR InstName R1
SYMATTR Value 10k
SYMBOL cap 304 -176 R0
SYMATTR InstName C1
SYMATTR Value 30p
SYMBOL voltage -144 48 R0
WINDOW 123 0 0 Left 0
WINDOW 39 0 0 Left 0
SYMATTR InstName PWM
SYMATTR Value PULSE(0 5 200” 5n 15n 400” 1m 1000)
SYMBOL cap -160 -112 R0
SYMATTR InstName C2
SYMATTR Value 200n
SYMATTR SpiceLine V=20
SYMBOL res 384 48 R0
SYMATTR InstName R2
SYMATTR Value 500
TEXT 544 -224 Left 2 !.tran 0.5s
